CM Computer generated SuperNEC file
CM The model has : 1 segments
CM                 4 plates
CM                 0 cylinders
CM                 no symmetry
CE 
GW  1    1 -0.350000  0.000000  0.000000 -0.050000  0.000000  0.000000  0.001000
PL  1    1    4    1
DL  0    0  1.000000 1.00E+07  1.000000  1.000000
CR  1    1  1.000000 -2.000000 -1.000000
CR  2    1  1.000000  2.000000 -1.000000
CR  3    1  1.000000  2.000000  14.00000
CR  4    1  1.000000 -2.000000  14.00000
PL  2    1    4    1
DL  0    0  1.000000 1.00E+07  1.000000  1.000000
CR  1    1  1.000000  2.000000 -1.000000
CR  2    1 -1.000000  2.000000 -1.000000
CR  3    1 -1.000000  2.000000  14.00000
CR  4    1  1.000000  2.000000  14.00000
PL  3    1    4    1
DL  0    0  1.000000 1.00E+07  1.000000  1.000000
CR  1    1 -1.000000  2.000000 -1.000000
CR  2    1 -1.000000 -2.000000 -1.000000
CR  3    1 -1.000000 -2.000000  14.00000
CR  4    1 -1.000000  2.000000  14.00000
PL  4    1    4    1
DL  0    0  1.000000 1.00E+07  1.000000  1.000000
CR  1    1 -1.000000 -2.000000 -1.000000
CR  2    1  1.000000 -2.000000 -1.000000
CR  3    1  1.000000 -2.000000  14.00000
CR  4    1 -1.000000 -2.000000  14.00000
GE  0
EK -1
KH  0    0    0    0  1.000000
PT -2   -1   -1   -1
PQ  0
FC  1    0
FC  1    1    1    0    0    0    1    0
FC  0    0    0    0    0    0    0    0
FC  1    1    0
FC  1    1    0    0    0    0
FC  1    1    0    0    0    0    0    0
FR  0    1    0    0  500.0000
EX  0    1    1    0  1.000000  0.000000
XQ 
FC  1    0
FC  1    1    1    0    0    0    1    0
FC  6    0    0    0    0    0    0    0
FC  1    1    0
FC  1    1    0    0    0    0
FC  1    1    0    0    0    0    0    0
NE  0   71   71    1 -1.000000 -2.000000  5.000000  0.028571  0.057143  0.000000
NE  0    1    1  201  0.000000  0.000000  1.000000  1.000000  1.000000  0.025000
XQ 
EN 
