CM Computer generated SuperNEC file
CM The model has : 3 segments
CM                 4 plates
CM                 0 cylinders
CM                 no symmetry
CE 
PL  1    0    4    1
DL  0    0  1.000000  0.010000  10.00000  1.000000
CR  1    1  2.000000  100.0000  0.000000
CR  2    1  2.000000  100.0000  2.000000
CR  3    1  2.000000 -10.00000  2.000000
CR  4    1  2.000000 -10.00000  0.000000
PL  2    0    4    1
DL  0    0  1.000000  0.010000  10.00000  1.000000
CR  1    1 -2.000000  100.0000  0.000000
CR  2    1 -2.000000  100.0000  2.000000
CR  3    1 -2.000000 -10.00000  2.000000
CR  4    1 -2.000000 -10.00000  0.000000
PL  3    0    4    1
DL  0    0  1.000000  0.010000  10.00000  1.000000
CR  1    1  2.000000  100.0000  0.000000
CR  2    1 -2.000000  100.0000  0.000000
CR  3    1 -2.000000 -10.00000  0.000000
CR  4    1  2.000000 -10.00000  0.000000
PL  4    0    4    1
DL  0    0  1.000000  0.010000  10.00000  1.000000
CR  1    1  2.000000  100.0000  2.000000
CR  2    1 -2.000000  100.0000  2.000000
CR  3    1 -2.000000 -10.00000  2.000000
CR  4    1  2.000000 -10.00000  2.000000
GW  0    1  1.890000  0.000000  1.900000  1.896667  0.000000  1.900000  0.001000
GW  1    1  1.896667  0.000000  1.900000  1.903333  0.000000  1.900000  0.001000
GW  0    1  1.903333  0.000000  1.900000  1.910000  0.000000  1.900000  0.001000
GE  0
EK -1
KH  0    0    0    0  1.000000
PT -2   -1   -1   -1
PQ  0
FC  1    1
FC  1    1    1    1    0    0    1    0
FC  3    0    0    0    0    0    0    0
FC  1    1    0
FC  1    1    0    0    0    0
FC  1    1    0    0    0    0    0    0
FR  0    1    0    0  3000.000
EX  0    1    1    0  1.000000  0.000000
XQ 
FC  1    1
FC  1    1    1    1    0    0    1    0
FC  6    0    0    0    0    0    0    0
FC  1    1    0
FC  1    1    0    0    0    0
FC  1    1    0    0    0    0    0    0
NE  0   51    1   51 -2.000000  50.00000  0.000000  0.080000  0.000000  0.040000
XQ 
EN 
